$DATA1 SOURCE='HSPICE' VERSION='G-2012.06-SP1 32-BIT'
.TITLE '*calculate snm'
 maxvd            snm              temper           alter#            
    0.3570           0.2525          25.0000        1                 
